90

Si	-1.0	-1.0	-3.0	
Si	-1.0	-3.0	-1.0	
Si	-3.0	-1.0	-1.0	
Si	-2.0	-2.0	0.0	
Si	-1.0	-1.0	1.0	
Si	-2.0	0.0	-2.0	
Si	-1.0	1.0	-1.0	
Si	-4.0	0.0	0.0	
Si	-3.0	1.0	1.0	
Si	-2.0	2.0	0.0	
Si	-1.0	3.0	1.0	
Si	-2.0	0.0	2.0	
Si	-1.0	1.0	3.0	
Si	-4.0	2.0	2.0	
Si	-3.0	3.0	3.0	
Si	-2.0	2.0	4.0	
Si	-1.0	3.0	5.0	
Si	-2.0	4.0	2.0	
Si	-1.0	5.0	3.0	
Si	0.0	-2.0	-2.0	
Si	1.0	-1.0	-1.0	
Si	0.0	-4.0	0.0	
Si	1.0	-3.0	1.0	
Si	2.0	-2.0	0.0	
Si	3.0	-1.0	1.0	
Si	2.0	-4.0	2.0	
Si	3.0	-3.0	3.0	
Si	0.0	-2.0	2.0	
Si	1.0	-1.0	3.0	
Si	2.0	-2.0	4.0	
Si	3.0	-1.0	5.0	
Si	0.0	0.0	-4.0	
Si	1.0	1.0	-3.0	
Si	2.0	2.0	-4.0	
Si	3.0	3.0	-3.0	
Si	2.0	0.0	-2.0	
Si	3.0	1.0	-1.0	
Si	0.0	2.0	-2.0	
Si	1.0	3.0	-1.0	
Si	0.0	0.0	4.0	
Si	1.0	1.0	5.0	
Si	2.0	2.0	4.0	
Si	3.0	3.0	5.0	
Si	2.0	0.0	6.0	
Si	3.0	1.0	7.0	
Si	0.0	2.0	6.0	
Si	1.0	3.0	7.0	
Si	2.0	4.0	-2.0	
Si	3.0	5.0	-1.0	
Si	0.0	4.0	0.0	
Si	1.0	5.0	1.0	
Si	2.0	6.0	0.0	
Si	3.0	7.0	1.0	
Si	2.0	4.0	2.0	
Si	3.0	5.0	3.0	
Si	0.0	6.0	2.0	
Si	1.0	7.0	3.0	
Si	0.0	4.0	4.0	
Si	1.0	5.0	5.0	
Si	2.0	6.0	4.0	
Si	2.0	4.0	6.0	
Si	4.0	-2.0	2.0	
Si	5.0	-1.0	3.0	
Si	4.0	2.0	-2.0	
Si	5.0	3.0	-1.0	
Si	4.0	0.0	0.0	
Si	5.0	1.0	1.0	
Si	6.0	2.0	0.0	
Si	7.0	3.0	1.0	
Si	6.0	0.0	2.0	
Si	7.0	1.0	3.0	
Si	4.0	2.0	2.0	
Si	5.0	3.0	3.0	
Si	4.0	0.0	4.0	
Si	5.0	1.0	5.0	
Si	6.0	2.0	4.0	
Si	4.0	2.0	6.0	
Si	4.0	4.0	0.0	
Si	5.0	5.0	1.0	
Si	6.0	4.0	2.0	
Si	4.0	6.0	2.0	
Si	4.0	4.0	4.0	
Si	0.0	0.0	0.0	
Si	1.0	1.0	1.0	
Si	2.0	2.0	0.0	
Si	3.0	3.0	1.0	
Si	2.0	0.0	2.0	
Si	3.0	1.0	3.0	
Si	0.0	2.0	2.0	
Si	1.0	3.0	3.0	
