22

Si	-1.0	-1.0	-1.0	
Si	-1.0	-1.0	1.0	
Si	-1.0	1.0	-1.0	
Si	-2.0	0.0	0.0	
Si	-1.0	1.0	1.0	
Si	1.0	-1.0	-1.0	
Si	0.0	-2.0	0.0	
Si	1.0	-1.0	1.0	
Si	0.0	0.0	-2.0	
Si	1.0	1.0	-1.0	
Si	0.0	0.0	2.0	
Si	1.0	1.0	3.0	
Si	0.0	2.0	0.0	
Si	1.0	3.0	1.0	
Si	0.0	2.0	2.0	
Si	2.0	0.0	0.0	
Si	3.0	1.0	1.0	
Si	2.0	0.0	2.0	
Si	2.0	2.0	0.0	
Si	2.0	2.0	2.0	
Si	0.0	0.0	0.0	
Si	1.0	1.0	1.0	
