8

Si	0.3863	-0.0296	-1.1042	
Si	0.22076303428851624	-0.01781717244451265	-0.6325447467081147	
F	-0.4452	1.3509	-2.0909	
F	-0.0366	-1.704	-1.8712	
F	2.2592	0.2203	-1.1136	
F	0.6402630342885162	1.6579828275554873	0.13325525329188537	
F	1.0551630342885163	-1.3959171724445127	0.35505525329188536	
F	-1.651636965711484	-0.2715171724445126	-0.6229447467081146	
8

Si	0.3863	-0.0296	-1.1042	
Si	-0.14023666979577332	0.007878582231943036	0.3960315965657635	
F	-0.4452	1.3509	-2.0909	
F	-0.0366	-1.704	-1.8712	
F	2.2592	0.2203	-1.1136	
F	0.2792633302042266	1.683678582231943	1.1618315965657635	
F	0.6941633302042267	-1.370221417768057	1.3836315965657635	
F	-2.0126366697957736	-0.2458214177680569	0.40563159656576353	
8

Si	0.3863	-0.0296	-1.1042	
Si	-0.5012363738800629	0.03357433690839873	1.4246079398396416	
F	-0.4452	1.3509	-2.0909	
F	-0.0366	-1.704	-1.8712	
F	2.2592	0.2203	-1.1136	
F	-0.081736373880063	1.7093743369083987	2.1904079398396417	
F	0.3331636261199371	-1.3445256630916014	2.4122079398396417	
F	-2.373636373880063	-0.22012566309160123	1.4342079398396417	
8

Si	0.3863	-0.0296	-1.1042	
Si	-0.8622360779643524	0.059270091584854426	2.4531842831135195	
F	-0.4452	1.3509	-2.0909	
F	-0.0366	-1.704	-1.8712	
F	2.2592	0.2203	-1.1136	
F	-0.4427360779643525	1.7350700915848545	3.2189842831135196	
F	-0.02783607796435239	-1.3188299084151456	3.4407842831135196	
F	-2.734636077964353	-0.1944299084151455	2.4627842831135194	
