3

Si	0.5	0.0	0.0	
F	0.0	0.0	0.0	
C	0.35355339059327373	0.3535533905932738	0.0	
3

Si	0.5	0.0	0.0	
F	0.0	0.0	0.0	
C	0.46193976625564337	0.19134171618254492	0.0	
3

Si	0.5	0.0	0.0	
F	0.0	0.0	0.0	
C	0.5	3.061616997868383E-17	0.0	
3

Si	0.5	0.0	0.0	
F	0.0	0.0	0.0	
C	0.46193976625564337	-0.19134171618254486	0.0	
3

Si	0.5	0.0	0.0	
F	0.0	0.0	0.0	
C	0.3535533905932738	-0.35355339059327373	0.0	
3

Si	1.125	0.0	0.0	
F	0.0	0.0	0.0	
C	0.795495128834866	0.7954951288348661	0.0	
3

Si	1.125	0.0	0.0	
F	0.0	0.0	0.0	
C	1.0393644740751975	0.43051886141072604	0.0	
3

Si	1.125	0.0	0.0	
F	0.0	0.0	0.0	
C	1.125	6.888638245203862E-17	0.0	
3

Si	1.125	0.0	0.0	
F	0.0	0.0	0.0	
C	1.0393644740751975	-0.43051886141072593	0.0	
3

Si	1.125	0.0	0.0	
F	0.0	0.0	0.0	
C	0.7954951288348661	-0.795495128834866	0.0	
3

Si	1.75	0.0	0.0	
F	0.0	0.0	0.0	
C	1.237436867076458	1.2374368670764582	0.0	
3

Si	1.75	0.0	0.0	
F	0.0	0.0	0.0	
C	1.6167891818947517	0.6696960066389073	0.0	
3

Si	1.75	0.0	0.0	
F	0.0	0.0	0.0	
C	1.75	1.071565949253934E-16	0.0	
3

Si	1.75	0.0	0.0	
F	0.0	0.0	0.0	
C	1.6167891818947517	-0.669696006638907	0.0	
3

Si	1.75	0.0	0.0	
F	0.0	0.0	0.0	
C	1.2374368670764582	-1.237436867076458	0.0	
3

Si	2.375	0.0	0.0	
F	0.0	0.0	0.0	
C	1.6793786053180502	1.6793786053180504	0.0	
3

Si	2.375	0.0	0.0	
F	0.0	0.0	0.0	
C	2.194213889714306	0.9088731518670884	0.0	
3

Si	2.375	0.0	0.0	
F	0.0	0.0	0.0	
C	2.375	1.4542680739874819E-16	0.0	
3

Si	2.375	0.0	0.0	
F	0.0	0.0	0.0	
C	2.194213889714306	-0.9088731518670881	0.0	
3

Si	2.375	0.0	0.0	
F	0.0	0.0	0.0	
C	1.6793786053180504	-1.6793786053180502	0.0	
3

Si	3.0	0.0	0.0	
F	0.0	0.0	0.0	
C	2.1213203435596424	2.121320343559643	0.0	
3

Si	3.0	0.0	0.0	
F	0.0	0.0	0.0	
C	2.77163859753386	1.1480502970952695	0.0	
3

Si	3.0	0.0	0.0	
F	0.0	0.0	0.0	
C	3.0	1.8369701987210297E-16	0.0	
3

Si	3.0	0.0	0.0	
F	0.0	0.0	0.0	
C	2.77163859753386	-1.1480502970952693	0.0	
3

Si	3.0	0.0	0.0	
F	0.0	0.0	0.0	
C	2.121320343559643	-2.1213203435596424	0.0	
